Circuit: * C:\Users\joa-m\Desktop\tp_final_sim.asc

.OP point found by inspection.

Date: Sun Jun 03 18:35:07 2018
Total elapsed time: 0.089 seconds.

tnom = 27
temp = 27
method = modified trap
totiter = 2422
traniter = 2422
tranpoints = 1212
accept = 1202
rejected = 10
matrix size = 4
fillins = 0
solver = Normal
Matrix Compiler1: 136 bytes object code size  0.1/0.1/[0.0]
Matrix Compiler2: 230 bytes object code size  0.1/0.1/[0.1]

