Circuit: * C:\Users\joa-m\InformesElectro\TP Final Simulations\tp_final_sim.asc

.OP point found by inspection.

Date: Wed Jun 13 10:09:34 2018
Total elapsed time: 0.179 seconds.

tnom = 27
temp = 27
method = modified trap
totiter = 2422
traniter = 2422
tranpoints = 1212
accept = 1202
rejected = 10
matrix size = 4
fillins = 0
solver = Normal
Matrix Compiler1: 136 bytes object code size  0.2/0.1/[0.1]
Matrix Compiler2: 230 bytes object code size  0.1/0.1/[0.1]

