Circuit: * C:\Users\joa-m\InformesElectro\Simulación LTSPICE\LTSPICE\tp_final_sim.asc

.OP point found by inspection.

Date: Wed Jun 20 23:54:58 2018
Total elapsed time: 0.074 seconds.

tnom = 27
temp = 27
method = modified trap
totiter = 2264
traniter = 2264
tranpoints = 1133
accept = 1130
rejected = 3
matrix size = 4
fillins = 0
solver = Normal
Matrix Compiler1: 136 bytes object code size  0.1/0.1/[0.0]
Matrix Compiler2: off  [0.0]/0.1/0.0

