Circuit: * C:\Users\joa-m\InformesElectro\TP Final Simulations\tp_final_sim.asc

.OP point found by inspection.

Date: Wed Jun 20 18:45:44 2018
Total elapsed time: 0.190 seconds.

tnom = 27
temp = 27
method = modified trap
totiter = 2426
traniter = 2426
tranpoints = 1214
accept = 1204
rejected = 10
matrix size = 4
fillins = 0
solver = Normal
Matrix Compiler1: 136 bytes object code size  0.2/0.1/[0.0]
Matrix Compiler2: off  [0.1]/0.2/0.2

