Circuit: * C:\Users\Marcelo\Documents\GitHub\InformesElectro\Simulación LTSPICE\Draft1.asc

Direct Newton iteration for .op point succeeded.

Date: Thu Jun 21 14:16:41 2018
Total elapsed time: 0.063 seconds.

tnom = 27
temp = 27
method = modified trap
totiter = 1768
traniter = 1765
tranpoints = 858
accept = 852
rejected = 6
matrix size = 7
fillins = 0
solver = Normal
Matrix Compiler1: 232 bytes object code size  0.1/0.1/[0.0]
Matrix Compiler2: 421 bytes object code size  0.1/0.1/[0.1]

