Circuit: * C:\Users\Marcelo\Documents\GitHub\InformesElectro\Simulación LTSPICE\Draft1.asc

Direct Newton iteration for .op point succeeded.

Date: Fri Jun 22 01:27:27 2018
Total elapsed time: 0.031 seconds.

tnom = 27
temp = 27
method = modified trap
totiter = 867
traniter = 864
tranpoints = 433
accept = 430
rejected = 3
matrix size = 7
fillins = 0
solver = Normal
Matrix Compiler1: 232 bytes object code size  0.0/0.0/[0.0]
Matrix Compiler2:      37 opcodes  0.0/[0.0]/0.0

