Circuit: * C:\Users\joa-m\InformesElectro\Simulación LTSPICE\tp_final_sim.asc

V1: Missing value, assumed 0V @ DC
.OP point found by inspection.

Date: Wed Jun 20 18:56:59 2018
Total elapsed time: 0.145 seconds.

tnom = 27
temp = 27
method = modified trap
totiter = 2082
traniter = 2082
tranpoints = 1042
accept = 1042
rejected = 0
matrix size = 4
fillins = 0
solver = Normal
Matrix Compiler1:       8 opcodes  0.1/[0.0]/0.1
Matrix Compiler2: 230 bytes object code size  0.1/0.2/[0.1]

